,ῃ n componi: Β. mm,k

.Dc Ieremia Propheta. Lenia ij
Lec'tio j. cap. 8. Dan auditus
Uc‘imodi) dicitis: Sa· ³ mituscqut‘n:

, pientes nos snmus, avocehinnituum

& ex Dbmini nobiscum “3¹¹¹ ejus commin

est? ver& nicndz'iciumope· ms tetra τ 8( veni

τέως est stylus mendax devoraverunt te.
scribitum.Confiis1sunt sa· pienitiidinem ejus
pientes, pcninin δι capti ὃ( habitatbres eji
sunt3 verbum enim Dnmi· ecce ego mina-mv
ni pro'ccdrunt ‚ δι Γαρίέιι- pentes &gulosam
tia nu la estin cin mopte- cst incantiti03 δι

καὶ dabo mulieres ebrum bunt vos, ait Β

&xterisstgtoscc‘nunihaerest Dolorineussuperc

dibus3 quia In minimo us· m me cot intumi

quc ad maximum omncs Ecce vox clam&
avaritiam sequuntur ς *a pbpuli mci de t<
prophetans ueadsacerdb- ginqua :Numqui
teneunffl gaciummendz'i- nus non est ins
cium. Etsnmibant contri· rex ejus non est
tibncnfiliae pbpuli mci ad Quare crgo me a<
ignominiam ζ ἀὶεεηιφι ἀίαηιςοηεὶῑινέηω

Pax , pax ε cum non ciiet ptilibus suis, δι ’

pan. eonfmi sunt, quia titibns aiiknis ἓ

abominatii'mem fece'mm: menn , finita est:

quinimti confufit‘mq non nos salvinnonsn
sunt confisi, & erube'scere per· contritit'me fi
nescikrunt3 idcirc& cadent puiimei contrim

· intercormentcS,inte‘inpo- contristiitus, stup

tevisitatibnissuaecbrment, nuit me. Numqui

dicit Dbminusdcmsalcm. non est in eila:
152. Erit in die iila , dicit medicus non est ih

Dbminu53 convertaminm· igitur non estob

nia cintica vestra in plan· citrix filiae pbpu

lium, δι * Ponamdiem Jerisalem.

tamquasilustumunige‘ni- nnMultipiicitae
ti, & noviffina 'ejusquasi hi viduae J eriisalt
diem ambrum. iit. Filius dnxicissupermat
hbmmis tindendus est in iegscentisvastati'm
manus himinum 3 & occi· die3 δι residuosin
dent eum*¹ Ponam diem. dabo. il. Ecce vit

AmanManh. ιγ. 'm quibus'dictnt

 

